   Input file: D:\OneDrive\+Programming\GitHub\haltaFall\ECf\tests-ECf\SIT\ECf-HaltaFall_Test_CaSO4-Na-Cl.pqi
  Output file: D:\OneDrive\+Programming\GitHub\haltaFall\ECf\tests-ECf\SIT\ECf-HaltaFall_Test_CaSO4-Na-Cl.pqo
Database file: C:\Program Files\USGS\phreeqc-3.8.6-17100-x64\database\sit.dat

------------------
Reading data base.
------------------

	SOLUTION_SPECIES
	SOLUTION_MASTER_SPECIES
	SIT
	SOLUTION_SPECIES
	PHASES
------------------------------------
Reading input data for simulation 1.
------------------------------------

	DATABASE C:\Program Files\USGS\phreeqc-3.8.6-17100-x64\database\sit.dat
	TITLE This PhreeqC input file is used to perform the same calculation
	      as defined in the EC-input file 'CaSO4-Na-Cl_ECf.dat'.
	      The purpose is to compare this PhreeqC results with those from
	      the EC software.
	      .
	      First the equilibrium constants are given to make sure they are
	      the same as in 'CaSO4-Na-Cl_ECf.dat'.
	      Then SIT-epsilon values are given so that they are the same as
	      in file 'SIT-coefficients.dta', which is used by the EC software.
	SOLUTION_SPECIES
	1.000H+     + 1.000SO4-2     = H(SO4)-
	     log_k     1.980     
	1.000Ca+2     - 1.000H+     + 1.000H2O     = Ca(OH)+
	     log_k   -12.780
	1.000Ca+2     + 1.000SO4-2     = Ca(SO4)
	     log_k     2.310
	1.000Ca+2     + 1.000CO3-2     = CaCO3
	     log_k     3.220
	- 1.000H+     + 1.000H2O     = OH-
	     log_k   -14.000     
	- 8 H+ - 8 e- + Cl- + 4 H2O = ClO4-
	      log_k -9999.  #supress the formation of perchlorate
	- 2 e- + 2 Cl- = Cl2
	      log_k -9999.  #supress the formation
	9 H+ + 8 e- + SO4-2 - 4 H2O = HS-
	      log_k -9999.  #supress the formation
	10 H+ + 8 e- + 2 SO4-2 - 5 H2O = S2O3-2
	      log_k -9999.  #supress the formation
	8 H+ + 6 e- + 2 SO4-2 - 4 H2O = S2O4-2
	      log_k -9999.  #supress the formation
	2 H+ + 2 e- + SO4-2 - H2O = SO3-2
	      log_k -9999.  #supress the formation
	- H+ - 2 e- + SO4-2 + H2O = HSO5-
	      log_k -9999.  #supress the formation
	PHASES
	Gypsum
	CaSO4:2H2O     = 1.000Ca+2     + 1.000SO4-2     + 2.000H2O
	     log_k    -4.610     
	Anhydrite
	Ca(SO4)      = 1.000Ca+2     + 1.000SO4-2
	     log_k    -4.440     
	Halite
	NaCl     = 1.000Na+     + 1.000Cl-
	     log_k     1.590     
	Fix_H+ 
	     H+ = H+ 
	     log_k  0.0
	SIT
	epsilon
	Ca+2                  Cl-       0.140
WARNING: Redefinition of parameter, Ca+2 Cl-

	Cl-                   Na+       0.030
WARNING: Redefinition of parameter, Cl- Na+

	H(SO4)-               Na+       -0.010
WARNING: Redefinition of parameter, H(SO4)- Na+

	H+                    Cl-       0.120
WARNING: Redefinition of parameter, H+ Cl-

	OH-                   Na+       0.040
WARNING: Redefinition of parameter, OH- Na+

	SO4-2                 Na+       -0.120
WARNING: Redefinition of parameter, SO4-2 Na+

	H+     SO4-2    0.
	H+     H(SO4)-  0.
	Ca+2    SO4-2   0.
	Ca+2    H(SO4)- 0.
	Ca+2    OH-     0.
	Ca(OH)+ SO4-2   0.
	Ca(OH)+ H(SO4)- 0.
	Ca(OH)+ Cl-     0.
	Ca(OH)+ OH-     0.
	OH-     H+      0.
	USER_PRINT
	start
	10 PRINT "Debye-Hückel A=",DH_A,", B=",DH_B
	end
	TITLE **************************************************************************
	      Test 1: Speciation at pH=7 of an aqueous solution with 0.5 mol Na2SO4
	      Expected: log act-coef for H(SO4)- = -0.230, I= 1.5,
	      .         osmotic coefficient (phi)= 0.723
	      **************************************************************************
	SOLUTION
	    temp      25
	    pH        7
	    pe        4
	    redox     pe
	    units     mol/kgw
	    density   1
	    Na        1.0
	    S(6)      0.5
	    water    1 # kg
	END
-----
TITLE
-----

 **************************************************************************
      Test 1: Speciation at pH=7 of an aqueous solution with 0.5 mol Na2SO4
      Expected: log act-coef for H(SO4)- = -0.230, I= 1.5,
      .         osmotic coefficient (phi)= 0.723
      **************************************************************************

-------------------------------------------
Beginning of initial solution calculations.
-------------------------------------------

Initial solution 1.	

----------------------------------User print-----------------------------------

Debye-Hückel A=   5.1002e-01 , B=   3.2849e-01 

-----------------------------Solution composition------------------------------

	Elements           Molality       Moles

	Na                1.000e+00   1.000e+00
	S(6)              5.000e-01   5.000e-01

----------------------------Description of solution----------------------------

                                       pH  =   7.000    
                                       pe  =   4.000    
                        Activity of water  =   0.981
                 Ionic strength (mol/kgw)  =   1.500e+00
                       Mass of water (kg)  =   1.000e+00
                 Total alkalinity (eq/kg)  =  -8.275e-07
                         Temperature (oC)  =  25.00
                  Electrical balance (eq)  =   8.275e-07
 Percent error, 100*(Cat-|An|)/(Cat+|An|)  =   0.00
                               Iterations  =   7
                         Gamma iterations  =   4
                      Osmotic coefficient  =   0.72275
                                  Total H  = 1.110174e+02
                                  Total O  = 5.750868e+01

----------------------------Distribution of species----------------------------

                                               Log       Log       Log    mole V
   Species          Molality    Activity  Molality  Activity     Gamma   cm3/mol

   H+              1.660e-07   1.000e-07    -6.780    -7.000    -0.220      0.00
   OH-             1.485e-07   9.807e-08    -6.828    -7.008    -0.180     (0)  
   H2O             5.551e+01   9.807e-01     1.744    -0.008     0.000     18.07
H(0)          1.664e-25
   H2              8.318e-26   8.318e-26   -25.080   -25.080     0.000     (0)  
Na            1.000e+00
   Na+             1.000e+00   5.246e-01    -0.000    -0.280    -0.280     (0)  
O(0)          0.000e+00
   O2              0.000e+00   0.000e+00   -42.007   -42.007     0.000     (0)  
S(6)          5.000e-01
   SO4-2           5.000e-01   4.992e-02    -0.301    -1.302    -1.001     (0)  
   H(SO4)-         8.099e-07   4.767e-07    -6.092    -6.322    -0.230     (0)  
   S2O8-2          0.000e+00   0.000e+00   -59.103   -59.983    -0.881     (0)  

------------------------------Saturation indices-------------------------------

  Phase               SI** log IAP   log K(298 K,   1 atm)

  Fix_H+           -7.00     -7.00    0.00  H+
  H2(g)           -22.00    -22.00    0.00  H2
  H2O(g)           -1.50    -43.00  -41.50  H2O
  Mirabilite       -0.72     -1.95   -1.23  Na2SO4:10H2O
  Na(cr)          -50.17     -4.28   45.89  Na
  Na2O(cr)        -54.03     13.43   67.46  Na2O
  O2(g)           -39.11    -42.01   -2.90  O2
  Thenardite       -1.50     -1.86   -0.36  Na2SO4

**For a gas, SI = log10(fugacity). Fugacity = pressure * phi / 1 atm.
  For ideal gases, phi = 1.

------------------
End of simulation.
------------------

------------------------------------
Reading input data for simulation 2.
------------------------------------

	TITLE **************************************************************************
	      Make SOLUTION 1 (pure water) that will be used as a starting point
	      for subsequent calculations
	      **************************************************************************
	SOLUTION 1
	    temp      25
	    pH        7
	    pe        4
	    redox     pe
	    units     mol/kgw
	    density   1
	    Na        0.
	    Cl        0.
	    Ca        0.
	    S(6)      0.
	    water    1 # kg
	SAVE solution 1
	END
-----
TITLE
-----

 **************************************************************************
      Make SOLUTION 1 (pure water) that will be used as a starting point
      for subsequent calculations
      **************************************************************************

-------------------------------------------
Beginning of initial solution calculations.
-------------------------------------------

Initial solution 1.	

----------------------------------User print-----------------------------------

Debye-Hückel A=   5.1002e-01 , B=   3.2849e-01 

-----------------------------Solution composition------------------------------

	Elements           Molality       Moles

	Pure water     

----------------------------Description of solution----------------------------

                                       pH  =   7.000    
                                       pe  =   4.000    
                        Activity of water  =   1.000
                 Ionic strength (mol/kgw)  =   1.000e-07
                       Mass of water (kg)  =   1.000e+00
                 Total alkalinity (eq/kg)  =  -3.605e-16
                         Temperature (oC)  =  25.00
                  Electrical balance (eq)  =   3.605e-16
 Percent error, 100*(Cat-|An|)/(Cat+|An|)  =   0.00
                               Iterations  =   3
                         Gamma iterations  =   2
                      Osmotic coefficient  =   0.99988
                                  Total H  = 1.110174e+02
                                  Total O  = 5.550868e+01

----------------------------Distribution of species----------------------------

                                               Log       Log       Log    mole V
   Species          Molality    Activity  Molality  Activity     Gamma   cm3/mol

   H+              1.000e-07   1.000e-07    -7.000    -7.000    -0.000      0.00
   OH-             1.000e-07   1.000e-07    -7.000    -7.000    -0.000     (0)  
   H2O             5.551e+01   1.000e+00     1.744    -0.000     0.000     18.07
H(0)          1.664e-25
   H2              8.318e-26   8.318e-26   -25.080   -25.080     0.000     (0)  
O(0)          0.000e+00
   O2              0.000e+00   0.000e+00   -41.990   -41.990     0.000     (0)  

------------------------------Saturation indices-------------------------------

  Phase               SI** log IAP   log K(298 K,   1 atm)

  Fix_H+           -7.00     -7.00    0.00  H+
  H2(g)           -22.00    -22.00    0.00  H2
  H2O(g)           -1.50    -43.00  -41.50  H2O
  O2(g)           -39.09    -41.99   -2.90  O2

**For a gas, SI = log10(fugacity). Fugacity = pressure * phi / 1 atm.
  For ideal gases, phi = 1.

------------------
End of simulation.
------------------

------------------------------------
Reading input data for simulation 3.
------------------------------------

	TITLE **************************************************************************
	      Test 2: Find the solubility of gypsum in 0.2 mol NaCl
	      expected: 0.0249 (=Ca conc.)
	      .         I= 0.279, pH= 7.06, osmotic coeff.= 0.901, 
	      **************************************************************************
	USE solution 1
	REACTION
	    Gypsum     1
	    NaCl       1
	    0.2 moles in 1 steps
	EQUILIBRIUM_PHASES
	    Gypsum    0 0
	    Anhydrite 0 0
	END
-----
TITLE
-----

 **************************************************************************
      Test 2: Find the solubility of gypsum in 0.2 mol NaCl
      expected: 0.0249 (=Ca conc.)
      .         I= 0.279, pH= 7.06, osmotic coeff.= 0.901, 
      **************************************************************************

-----------------------------------------
Beginning of batch-reaction calculations.
-----------------------------------------

Reaction step 1.

Using solution 1.	
Using pure phase assemblage 1.	
Using reaction 1.	

Reaction 1.	

	  2.000e-01 moles of the following reaction have been added:

	                 Relative
	Reactant            moles

	Gypsum               1.00000
	NaCl                 1.00000

	                 Relative
	Element             moles
	Ca                   1.00000
	Cl                   1.00000
	H                    4.00000
	Na                   1.00000
	O                    6.00000
	S                    1.00000

----------------------------------User print-----------------------------------

Debye-Hückel A=   5.1002e-01 , B=   3.2849e-01 

-------------------------------Phase assemblage--------------------------------

                                                      Moles in assemblage
Phase               SI  log IAP  log K(T, P)   Initial       Final       Delta

Anhydrite        -0.16    -4.60     -4.44    0.000e+00           0   0.000e+00
Gypsum            0.00    -4.61     -4.61    0.000e+00   1.751e-01   1.751e-01

-----------------------------Solution composition------------------------------

	Elements           Molality       Moles

	Ca                2.492e-02   2.494e-02
	Cl                1.998e-01   2.000e-01
	Na                1.998e-01   2.000e-01
	S                 2.492e-02   2.494e-02

----------------------------Description of solution----------------------------

                                       pH  =   7.060      Charge balance
                                       pe  =  10.879      Adjusted to redox equilibrium
                        Activity of water  =   0.993
                 Ionic strength (mol/kgw)  =   2.792e-01
                       Mass of water (kg)  =   1.001e+00
                 Total alkalinity (eq/kg)  =  -3.582e-16
                         Temperature (oC)  =  25.00
                  Electrical balance (eq)  =   7.125e-14
 Percent error, 100*(Cat-|An|)/(Cat+|An|)  =   0.00
                               Iterations  =  48
                         Gamma iterations  =   4
                      Osmotic coefficient  =   0.90106
                                  Total H  = 1.111171e+02
                                  Total O  = 5.565834e+01

----------------------------Distribution of species----------------------------

                                               Log       Log       Log    mole V
   Species          Molality    Activity  Molality  Activity     Gamma   cm3/mol

   OH-             1.580e-07   1.139e-07    -6.801    -6.944    -0.142     (0)  
   H+              1.166e-07   8.718e-08    -6.933    -7.060    -0.126      0.00
   H2O             5.551e+01   9.928e-01     1.744    -0.003     0.000     18.07
Ca            2.492e-02
   Ca+2            1.984e-02   5.298e-03    -1.703    -2.276    -0.573     (0)  
   Ca(SO4)         5.085e-03   5.085e-03    -2.294    -2.294     0.000     (0)  
   Ca(OH)+         1.415e-08   1.001e-08    -7.849    -7.999    -0.150     (0)  
Cl(-1)        1.998e-01
   Cl-             1.998e-01   1.442e-01    -0.699    -0.841    -0.142     (0)  
Cl(0)         0.000e+00
Cl(7)         0.000e+00
H(0)          2.203e-39
   H2              1.101e-39   1.101e-39   -38.958   -38.958     0.000     (0)  
Na            1.998e-01
   Na+             1.998e-01   1.425e-01    -0.699    -0.846    -0.147     (0)  
O(0)          1.151e-14
   O2              5.754e-15   5.754e-15   -14.240   -14.240     0.000     (0)  
S(-2)         0.000e+00
S(2)          0.000e+00
S(3)          0.000e+00
S(4)          0.000e+00
S(6)          2.492e-02
   SO4-2           1.984e-02   4.701e-03    -1.703    -2.328    -0.625     (0)  
   Ca(SO4)         5.085e-03   5.085e-03    -2.294    -2.294     0.000     (0)  
   H(SO4)-         5.558e-08   3.914e-08    -7.255    -7.407    -0.152     (0)  
   S2O8-2          0.000e+00   0.000e+00   -47.675   -48.277    -0.601     (0)  
S(8)          0.000e+00

------------------------------Saturation indices-------------------------------

  Phase               SI** log IAP   log K(298 K,   1 atm)

  Anhydrite        -0.16     -4.60   -4.44  Ca(SO4)
  Antarcticite     -7.92     -3.98    3.94  CaCl2:6H2O
  Bassanite        -0.69     -4.61   -3.92  CaSO4:0.5H2O
  Ca(cr)         -120.88    -24.03   96.85  Ca
  Ca(SO3)(s)     -10032.98  -10039.48   -6.50  Ca(SO3)
  Ca2Cl2(OH)2:H2O(s) -18.65      7.88   26.53  Ca2Cl2(OH)2:H2O
  Ca4Cl2(OH)6:13H2O(s) -37.22     31.51   68.73  Ca4Cl2(OH)6:13H2O
  CaCl2:2H2O(cr)  -11.91     -3.96    7.95  CaCl2:2H2O
  CaCl2:4H2O(cr)   -9.32     -3.97    5.35  CaCl2:4H2O
  CaCl2:H2O(s)    -11.81     -3.96    7.85  CaCl2:H2O
  CaO(cr)         -20.86     11.84   32.70  CaO
  Cl2(g)          -25.90     20.08   45.98  Cl2
  Fix_H+           -7.06     -7.06    0.00  H+
  Glauberite      -10.59     -8.62    1.97  Na2Ca(SO4)2
  Gypsum            0.00     -4.61   -4.61  CaSO4:2H2O
  H2(g)           -35.88    -35.88    0.00  H2
  H2O(g)           -1.50    -43.00  -41.50  H2O
  H2S(g)         -10150.95  -10158.95   -8.00  H2S
  Halite           -3.28     -1.69    1.59  NaCl
  HCl(g)          -14.19     -7.90    6.29  HCl
  Hydrophilite    -15.73     -3.96   11.77  CaCl2
  Mirabilite       -2.82     -4.05   -1.23  Na2SO4:10H2O
  Na(cr)          -57.62    -11.73   45.89  Na
  Na2O(cr)        -55.04     12.42   67.46  Na2O
  O2(g)           -11.34    -14.24   -2.90  O2
  Portlandite     -10.97     11.84   22.81  Ca(OH)2
  S(cr)          -10120.93  -10123.07   -2.14  S
  SO2(g)         -10042.38  -10051.32   -8.94  SO2
  Thenardite       -3.66     -4.02   -0.36  Na2SO4

**For a gas, SI = log10(fugacity). Fugacity = pressure * phi / 1 atm.
  For ideal gases, phi = 1.

------------------
End of simulation.
------------------

------------------------------------
Reading input data for simulation 4.
------------------------------------

	TITLE **************************************************************************
	      Test 3: Find the solubility of gypsum in 0.2 mol H2SO4
	      expected: 0.0172 (=Ca conc.), I= 0.292,
	      .         osmotic coeff.= 0.890, pH= 0.806
	      **************************************************************************
	USE solution 1
	REACTION
	    Gypsum    1
	    H2SO4     1
	    0.2 moles in 1 steps
	EQUILIBRIUM_PHASES
	    Gypsum    0 0
	    Anhydrite 0 0
	END
-----
TITLE
-----

 **************************************************************************
      Test 3: Find the solubility of gypsum in 0.2 mol H2SO4
      expected: 0.0172 (=Ca conc.), I= 0.292,
      .         osmotic coeff.= 0.890, pH= 0.806
      **************************************************************************

-----------------------------------------
Beginning of batch-reaction calculations.
-----------------------------------------

Reaction step 1.

Using solution 1.	
Using pure phase assemblage 1.	
Using reaction 1.	

Reaction 1.	

	  2.000e-01 moles of the following reaction have been added:

	                 Relative
	Reactant            moles

	Gypsum               1.00000
	H2SO4                1.00000

	                 Relative
	Element             moles
	Ca                   1.00000
	H                    6.00000
	O                   10.00000
	S                    2.00000

----------------------------------User print-----------------------------------

Debye-Hückel A=   5.1002e-01 , B=   3.2849e-01 

-------------------------------Phase assemblage--------------------------------

                                                      Moles in assemblage
Phase               SI  log IAP  log K(T, P)   Initial       Final       Delta

Anhydrite        -0.16    -4.60     -4.44    0.000e+00           0   0.000e+00
Gypsum            0.00    -4.61     -4.61    0.000e+00   1.828e-01   1.828e-01

-----------------------------Solution composition------------------------------

	Elements           Molality       Moles

	Ca                1.715e-02   1.716e-02
	S                 2.170e-01   2.172e-01

----------------------------Description of solution----------------------------

                                       pH  =   0.806      Charge balance
                                       pe  =  16.431      Adjusted to redox equilibrium
                        Activity of water  =   0.993
                 Ionic strength (mol/kgw)  =   2.922e-01
                       Mass of water (kg)  =   1.001e+00
                 Total alkalinity (eq/kg)  =  -3.998e-01
                         Temperature (oC)  =  25.00
                  Electrical balance (eq)  =  -7.919e-10
 Percent error, 100*(Cat-|An|)/(Cat+|An|)  =  -0.00
                               Iterations  =  31
                         Gamma iterations  =   4
                      Osmotic coefficient  =   0.89040
                                  Total H  = 1.114860e+02
                                  Total O  = 5.641163e+01

----------------------------Distribution of species----------------------------

                                               Log       Log       Log    mole V
   Species          Molality    Activity  Molality  Activity     Gamma   cm3/mol

   H+              2.219e-01   1.563e-01    -0.654    -0.806    -0.152      0.00
   OH-             9.019e-14   6.352e-14   -13.045   -13.197    -0.152     (0)  
   H2O             5.551e+01   9.928e-01     1.744    -0.003     0.000     18.07
Ca            1.715e-02
   Ca+2            1.206e-02   2.968e-03    -1.919    -2.528    -0.609     (0)  
   Ca(SO4)         5.085e-03   5.085e-03    -2.294    -2.294     0.000     (0)  
   Ca(OH)+         4.443e-15   3.129e-15   -14.352   -14.505    -0.152     (0)  
H(0)          5.594e-38
   H2              2.797e-38   2.797e-38   -37.553   -37.553     0.000     (0)  
O(0)          1.784e-17
   O2              8.921e-18   8.921e-18   -17.050   -17.050     0.000     (0)  
S(-2)         0.000e+00
S(2)          0.000e+00
S(3)          0.000e+00
S(4)          0.000e+00
S(6)          2.170e-01
   H(SO4)-         1.778e-01   1.252e-01    -0.750    -0.902    -0.152     (0)  
   SO4-2           3.411e-02   8.391e-03    -1.467    -2.076    -0.609     (0)  
   Ca(SO4)         5.085e-03   5.085e-03    -2.294    -2.294     0.000     (0)  
   S2O8-2          8.667e-37   2.132e-37   -36.062   -36.671    -0.609     (0)  
S(8)          0.000e+00

------------------------------Saturation indices-------------------------------

  Phase               SI** log IAP   log K(298 K,   1 atm)

  Anhydrite        -0.16     -4.60   -4.44  Ca(SO4)
  Bassanite        -0.69     -4.61   -3.92  CaSO4:0.5H2O
  Ca(cr)         -132.24    -35.39   96.85  Ca
  Ca(SO3)(s)     -10031.57  -10038.07   -6.50  Ca(SO3)
  CaO(cr)         -33.62     -0.92   32.70  CaO
  Fix_H+           -0.81     -0.81    0.00  H+
  Gypsum            0.00     -4.61   -4.61  CaSO4:2H2O
  H2(g)           -34.47    -34.47    0.00  H2
  H2O(g)           -1.50    -43.00  -41.50  H2O
  H2S(g)         -10132.57  -10140.57   -8.00  H2S
  O2(g)           -14.15    -17.05   -2.90  O2
  Portlandite     -23.73     -0.92   22.81  Ca(OH)2
  S(cr)          -10103.96  -10106.10   -2.14  S
  SO2(g)         -10028.22  -10037.16   -8.94  SO2

**For a gas, SI = log10(fugacity). Fugacity = pressure * phi / 1 atm.
  For ideal gases, phi = 1.

------------------
End of simulation.
------------------

------------------------------------
Reading input data for simulation 5.
------------------------------------

	TITLE **************************************************************************
	      Test 4: Find the solubility of halite in H2O
	      expected: 7.13 (=Na conc.), pH= 6.78
	      .         I= 7.13, osmotic coefff.= 1.169
	      **************************************************************************
	USE solution 1
	REACTION
	    NaCl     1
	    8 moles in 1 steps
	EQUILIBRIUM_PHASES
	    Halite    0 0
	SAVE solution 2
	END
-----
TITLE
-----

 **************************************************************************
      Test 4: Find the solubility of halite in H2O
      expected: 7.13 (=Na conc.), pH= 6.78
      .         I= 7.13, osmotic coefff.= 1.169
      **************************************************************************

-----------------------------------------
Beginning of batch-reaction calculations.
-----------------------------------------

Reaction step 1.

Using solution 1.	
Using pure phase assemblage 1.	
Using reaction 1.	

Reaction 1.	

	  8.000e+00 moles of the following reaction have been added:

	                 Relative
	Reactant            moles

	NaCl                 1.00000

	                 Relative
	Element             moles
	Cl                   1.00000
	Na                   1.00000

----------------------------------User print-----------------------------------

Debye-Hückel A=   5.1002e-01 , B=   3.2849e-01 

-------------------------------Phase assemblage--------------------------------

                                                      Moles in assemblage
Phase               SI  log IAP  log K(T, P)   Initial       Final       Delta

Halite            0.00     1.59      1.59    0.000e+00   8.689e-01   8.689e-01

-----------------------------Solution composition------------------------------

	Elements           Molality       Moles

	Cl                7.131e+00   7.131e+00
	Na                7.131e+00   7.131e+00

----------------------------Description of solution----------------------------

                                       pH  =   6.780      Charge balance
                                       pe  =  11.284      Adjusted to redox equilibrium
                        Activity of water  =   0.741
                 Ionic strength (mol/kgw)  =   7.131e+00
                       Mass of water (kg)  =   1.000e+00
                 Total alkalinity (eq/kg)  =  -1.877e-16
                         Temperature (oC)  =  25.00
                  Electrical balance (eq)  =  -1.425e-15
 Percent error, 100*(Cat-|An|)/(Cat+|An|)  =  -0.00
                               Iterations  =  17
                         Gamma iterations  =   5
                      Osmotic coefficient  =   1.16897
                                  Total H  = 1.110174e+02
                                  Total O  = 5.550868e+01

----------------------------Distribution of species----------------------------

                                               Log       Log       Log    mole V
   Species          Molality    Activity  Molality  Activity     Gamma   cm3/mol

   H+              4.329e-08   1.660e-07    -7.364    -6.780     0.584      0.00
   OH-             4.329e-08   4.462e-08    -7.364    -7.350     0.013     (0)  
   H2O             5.551e+01   7.406e-01     1.744    -0.130     0.000     18.07
Cl(-1)        7.131e+00
   Cl-             7.131e+00   6.237e+00     0.853     0.795    -0.058     (0)  
Cl(0)         0.000e+00
Cl(7)         0.000e+00
H(0)          1.242e-39
   H2              6.208e-40   6.208e-40   -39.207   -39.207     0.000     (0)  
Na            7.131e+00
   Na+             7.131e+00   6.237e+00     0.853     0.795    -0.058     (0)  
O(0)          2.015e-14
   O2              1.007e-14   1.007e-14   -13.997   -13.997     0.000     (0)  

------------------------------Saturation indices-------------------------------

  Phase               SI** log IAP   log K(298 K,   1 atm)

  Cl2(g)          -21.82     24.16   45.98  Cl2
  Fix_H+           -6.78     -6.78    0.00  H+
  H2(g)           -36.13    -36.13    0.00  H2
  H2O(g)           -1.63    -43.13  -41.50  H2O
  Halite            0.00      1.59    1.59  NaCl
  HCl(g)          -12.27     -5.98    6.29  HCl
  Na(cr)          -56.38    -10.49   45.89  Na
  Na2O(cr)        -52.44     15.02   67.46  Na2O
  O2(g)           -11.10    -14.00   -2.90  O2

**For a gas, SI = log10(fugacity). Fugacity = pressure * phi / 1 atm.
  For ideal gases, phi = 1.

------------------
End of simulation.
------------------

------------------------------------
Reading input data for simulation 6.
------------------------------------

	TITLE **************************************************************************
	      Test 5: Find the solubility of halite in 1 mol/kgw CaCl2
	      expected: 5.49 (=Na conc.), pH= 6.03
	      .         I= 8.49, osmotic coefficient (phi)= 1.285
	      **************************************************************************
	USE solution 2
	REACTION
	    CaCl2     1
	    1.0 moles in 1 steps
	EQUILIBRIUM_PHASES
	    Halite    0 0
	END
-----
TITLE
-----

 **************************************************************************
      Test 5: Find the solubility of halite in 1 mol/kgw CaCl2
      expected: 5.49 (=Na conc.), pH= 6.03
      .         I= 8.49, osmotic coefficient (phi)= 1.285
      **************************************************************************

-----------------------------------------
Beginning of batch-reaction calculations.
-----------------------------------------

Reaction step 1.

Using solution 2.	Solution after simulation 5.
Using pure phase assemblage 1.	
Using reaction 1.	

Reaction 1.	

	  1.000e+00 moles of the following reaction have been added:

	                 Relative
	Reactant            moles

	CaCl2                1.00000

	                 Relative
	Element             moles
	Ca                   1.00000
	Cl                   2.00000

----------------------------------User print-----------------------------------

Debye-Hückel A=   5.1002e-01 , B=   3.2849e-01 

-------------------------------Phase assemblage--------------------------------

                                                      Moles in assemblage
Phase               SI  log IAP  log K(T, P)   Initial       Final       Delta

Halite            0.00     1.59      1.59    0.000e+00   1.641e+00   1.641e+00

-----------------------------Solution composition------------------------------

	Elements           Molality       Moles

	Ca                1.000e+00   1.000e+00
	Cl                7.490e+00   7.490e+00
	Na                5.490e+00   5.490e+00

----------------------------Description of solution----------------------------

                                       pH  =   6.031      Charge balance
                                       pe  =  12.228      Adjusted to redox equilibrium
                        Activity of water  =   0.723
                 Ionic strength (mol/kgw)  =   8.490e+00
                       Mass of water (kg)  =   1.000e+00
                 Total alkalinity (eq/kg)  =   1.079e-16
                         Temperature (oC)  =  25.00
                  Electrical balance (eq)  =  -8.408e-10
 Percent error, 100*(Cat-|An|)/(Cat+|An|)  =  -0.00
                               Iterations  =  10
                         Gamma iterations  =   4
                      Osmotic coefficient  =   1.28516
                                  Total H  = 1.110174e+02
                                  Total O  = 5.550868e+01

----------------------------Distribution of species----------------------------

                                               Log       Log       Log    mole V
   Species          Molality    Activity  Molality  Activity     Gamma   cm3/mol

   H+              2.222e-07   9.307e-07    -6.653    -6.031     0.622      0.00
   OH-             8.866e-09   7.773e-09    -8.052    -8.109    -0.057     (0)  
   H2O             5.551e+01   7.235e-01     1.744    -0.141     0.000     18.07
Ca            1.000e+00
   Ca+2            1.000e+00   8.745e-01    -0.000    -0.058    -0.058     (0)  
   Ca(OH)+         2.133e-07   1.128e-07    -6.671    -6.948    -0.277     (0)  
Cl(-1)        7.490e+00
   Cl-             7.490e+00   7.988e+00     0.874     0.902     0.028     (0)  
Cl(0)         0.000e+00
Cl(7)         0.000e+00
H(0)          5.040e-40
   H2              2.520e-40   2.520e-40   -39.599   -39.599     0.000     (0)  
Na            5.490e+00
   Na+             5.490e+00   4.870e+00     0.740     0.688    -0.052     (0)  
O(0)          1.167e-13
   O2              5.836e-14   5.836e-14   -13.234   -13.234     0.000     (0)  

------------------------------Saturation indices-------------------------------

  Phase               SI** log IAP   log K(298 K,   1 atm)

  Antarcticite     -3.04      0.90    3.94  CaCl2:6H2O
  Ca(cr)         -121.36    -24.51   96.85  Ca
  Ca2Cl2(OH)2:H2O(s) -13.20     13.33   26.53  Ca2Cl2(OH)2:H2O
  Ca4Cl2(OH)6:13H2O(s) -33.64     35.09   68.73  Ca4Cl2(OH)6:13H2O
  CaCl2:2H2O(cr)   -6.48      1.47    7.95  CaCl2:2H2O
  CaCl2:4H2O(cr)   -4.17      1.18    5.35  CaCl2:4H2O
  CaCl2:H2O(s)     -6.24      1.61    7.85  CaCl2:H2O
  CaO(cr)         -20.84     11.86   32.70  CaO
  Cl2(g)          -19.72     26.26   45.98  Cl2
  Fix_H+           -6.03     -6.03    0.00  H+
  H2(g)           -36.52    -36.52    0.00  H2
  H2O(g)           -1.64    -43.14  -41.50  H2O
  Halite            0.00      1.59    1.59  NaCl
  HCl(g)          -11.42     -5.13    6.29  HCl
  Hydrophilite    -10.02      1.75   11.77  CaCl2
  Na(cr)          -57.43    -11.54   45.89  Na
  Na2O(cr)        -54.16     13.30   67.46  Na2O
  O2(g)           -10.33    -13.23   -2.90  O2
  Portlandite     -11.09     11.72   22.81  Ca(OH)2

**For a gas, SI = log10(fugacity). Fugacity = pressure * phi / 1 atm.
  For ideal gases, phi = 1.

------------------
End of simulation.
------------------

------------------------------------
Reading input data for simulation 7.
------------------------------------

-------------------------------
End of Run after 0.369 Seconds.
-------------------------------

